
  -OEChem-02052518233D

 49 52  0     1  0  0  0  0  0999 V2000
   11.1223    0.1102   23.3539 C   0  0  0  0  0  0  0  0  0  0  0  0
    9.9613   -0.5358   22.9780 C   0  0  0  0  0  0  0  0  0  0  0  0
   11.0154    1.3192   24.0045 C   0  0  0  0  0  0  0  0  0  0  0  0
    8.7194    0.0067   23.2344 C   0  0  0  0  0  0  0  0  0  0  0  0
    2.2831    2.7626   19.7131 C   0  0  0  0  0  0  0  0  0  0  0  0
    1.3636    3.3775   20.5148 C   0  0  0  0  0  0  0  0  0  0  0  0
    2.2549    2.2592   22.4145 C   0  0  0  0  0  0  0  0  0  0  0  0
    9.6797    3.0158   25.0248 C   0  0  0  0  0  0  0  0  0  0  0  0
    7.3884    2.9452   24.9342 C   0  0  0  0  0  0  0  0  0  0  0  0
    9.7757    1.8468   24.3082 C   0  0  0  0  0  0  0  0  0  0  0  0
    8.6165    1.1912   23.9233 C   0  0  0  0  0  0  0  0  0  0  0  0
    3.2428    1.9470   20.2661 C   0  0  0  0  0  0  0  0  0  0  0  0
    3.2337    1.7028   21.6396 C   0  0  0  0  0  0  0  0  0  0  0  0
    7.3947    1.7653   24.2271 C   0  0  0  0  0  0  0  0  0  0  0  0
    1.3457    3.1307   21.8651 C   0  0  0  0  0  0  0  0  0  0  0  0
    4.3733    1.5283   19.4942 C   0  0  0  0  0  0  0  0  0  0  0  0
    5.3520    1.8486   22.9659 C   0  0  0  0  0  0  0  0  0  0  0  0
    6.8669   -0.1048   18.7847 C   0  0  0  0  0  0  0  0  0  0  0  0
    5.0472    0.2201   21.3288 C   0  0  0  0  0  0  0  0  0  0  0  0
    4.3448    0.9820   22.3056 C   0  0  2  0  0  0  0  0  0  0  0  0
    5.1254   -1.7961   19.0389 C   0  0  0  0  0  0  0  0  0  0  0  0
    6.8377    1.0385   19.6941 C   0  0  0  0  0  0  0  0  0  0  0  0
    8.5042    3.5401   25.3371 N   0  0  0  0  0  0  0  0  0  0  0  0
    5.4438    1.0621   20.2084 N   0  0  0  0  0  0  0  0  0  0  0  0
    6.2071    1.2128   23.8177 N   0  0  0  0  0  0  0  0  0  0  0  0
    6.4303   -1.2265   19.4182 N   0  0  0  0  0  0  0  0  0  0  0  0
    4.4454    1.7870   18.3180 O   0  0  0  0  0  0  0  0  0  0  0  0
    5.6620    2.9019   22.4494 O   0  0  0  0  0  0  0  0  0  0  0  0
    6.5989    0.0924   17.6161 O   0  0  0  0  0  0  0  0  0  0  0  0
    0.2543    3.9501   22.8517 Cl  0  0  0  0  0  0  0  0  0  0  0  0
   12.0895   -0.3216   23.1430 H   0  0  0  0  0  0  0  0  0  0  0  0
   10.0271   -1.4875   22.4718 H   0  0  0  0  0  0  0  0  0  0  0  0
   11.9090    1.8597   24.2797 H   0  0  0  0  0  0  0  0  0  0  0  0
    7.8281   -0.4992   22.8938 H   0  0  0  0  0  0  0  0  0  0  0  0
    2.2565    2.9169   18.6445 H   0  0  0  0  0  0  0  0  0  0  0  0
    0.6472    4.0614   20.0841 H   0  0  0  0  0  0  0  0  0  0  0  0
    2.1959    2.0126   23.4643 H   0  0  0  0  0  0  0  0  0  0  0  0
   10.5825    3.5177   25.3402 H   0  0  0  0  0  0  0  0  0  0  0  0
    6.4399    3.4046   25.1705 H   0  0  0  0  0  0  0  0  0  0  0  0
    5.9462   -0.2162   21.7888 H   0  0  0  0  0  0  0  0  0  0  0  0
    4.3950   -0.5861   20.9618 H   0  0  0  0  0  0  0  0  0  0  0  0
    3.9193    0.3036   23.0597 H   0  0  0  0  0  0  0  0  0  0  0  0
    4.9269   -2.6936   19.6433 H   0  0  0  0  0  0  0  0  0  0  0  0
    4.3350   -1.0521   19.2169 H   0  0  0  0  0  0  0  0  0  0  0  0
    5.1399   -2.0679   17.9731 H   0  0  0  0  0  0  0  0  0  0  0  0
    7.5545    0.9004   20.5169 H   0  0  0  0  0  0  0  0  0  0  0  0
    7.0709    1.9697   19.1571 H   0  0  0  0  0  0  0  0  0  0  0  0
    5.9581    0.3061   24.1581 H   0  0  0  0  0  0  0  0  0  0  0  0
    6.9856   -1.6574   20.1295 H   0  0  0  0  0  0  0  0  0  0  0  0
  1  2  1  0  0  0  0
  1  3  2  0  0  0  0
  2  4  2  0  0  0  0
  3 10  1  0  0  0  0
  4 11  1  0  0  0  0
  5  6  2  0  0  0  0
  5 12  1  0  0  0  0
  6 15  1  0  0  0  0
  7 13  1  0  0  0  0
  7 15  2  0  0  0  0
  8 10  2  0  0  0  0
  8 23  1  0  0  0  0
  9 14  1  0  0  0  0
  9 23  2  0  0  0  0
 10 11  1  0  0  0  0
 11 14  2  0  0  0  0
 12 13  2  0  0  0  0
 12 16  1  0  0  0  0
 13 20  1  0  0  0  0
 14 25  1  0  0  0  0
 15 30  1  0  0  0  0
 16 24  1  0  0  0  0
 16 27  2  0  0  0  0
 17 20  1  0  0  0  0
 17 25  1  0  0  0  0
 17 28  2  0  0  0  0
 18 22  1  0  0  0  0
 18 26  1  0  0  0  0
 18 29  2  0  0  0  0
 19 20  1  0  0  0  0
 19 24  1  0  0  0  0
 21 26  1  0  0  0  0
 22 24  1  0  0  0  0
  1 31  1  0  0  0  0
  2 32  1  0  0  0  0
  3 33  1  0  0  0  0
  4 34  1  0  0  0  0
  5 35  1  0  0  0  0
  6 36  1  0  0  0  0
  7 37  1  0  0  0  0
  8 38  1  0  0  0  0
  9 39  1  0  0  0  0
 19 40  1  0  0  0  0
 19 41  1  0  0  0  0
 20 42  1  0  0  0  0
 21 43  1  0  0  0  0
 21 44  1  0  0  0  0
 21 45  1  0  0  0  0
 22 46  1  0  0  0  0
 22 47  1  0  0  0  0
 25 48  1  0  0  0  0
 26 49  1  0  0  0  0
M  END
> <compound_name>
MAT-POS-a54ce14d-2

> <provenance>
{"isomeric_smiles": "CNC(=O)CN1C[C@H](c2cc(ccc2C1=O)Cl)C(=O)Nc3cncc4c3cccc4", "inchi": "InChI=1S/C22H19ClN4O3/c1-24-20(28)12-27-11-18(17-8-14(23)6-7-16(17)22(27)30)21(29)26-19-10-25-9-13-4-2-3-5-15(13)19/h2-10,18H,11-12H2,1H3,(H,24,28)(H,26,29)/t18-/m1/s1", "inchi_key": "JTYFNCRZNYLUFK-GOSISDBHSA-N", "fixed_inchi": "InChI=1/C22H19ClN4O3/c1-24-20(28)12-27-11-18(17-8-14(23)6-7-16(17)22(27)30)21(29)26-19-10-25-9-13-4-2-3-5-15(13)19/h2-10,18H,11-12H2,1H3,(H,24,28)(H,26,29)/t18-/m1/s1/f/h24,26H", "fixed_inchikey": "JTYFNCRZNYLUFK-RPBBETCJNA-N"}

> <data_format>
sdf

> <docking-confidence-POSIT>
0.23000000417232513

> <Pose_ID>
13

> <_POSIT_method>
SHAPEFIT

$$$$
