
  -OEChem-02052518233D

 49 52  0     1  0  0  0  0  0999 V2000
    3.6167    2.3643   20.7036 C   0  0  0  0  0  0  0  0  0  0  0  0
    4.2901    1.8253   21.7726 C   0  0  0  0  0  0  0  0  0  0  0  0
    4.0360    2.0992   19.4312 C   0  0  0  0  0  0  0  0  0  0  0  0
    5.3980    1.0345   21.5750 C   0  0  0  0  0  0  0  0  0  0  0  0
   12.5396    1.2335   23.3955 C   0  0  0  0  0  0  0  0  0  0  0  0
   13.3860    0.4009   22.7216 C   0  0  0  0  0  0  0  0  0  0  0  0
   11.5778   -1.0716   22.2628 C   0  0  0  0  0  0  0  0  0  0  0  0
    5.5457    1.0385   17.9440 C   0  0  0  0  0  0  0  0  0  0  0  0
    7.2953   -0.2245   18.7233 C   0  0  0  0  0  0  0  0  0  0  0  0
    5.1199    1.2876   19.2219 C   0  0  0  0  0  0  0  0  0  0  0  0
    5.8289    0.7713   20.2939 C   0  0  0  0  0  0  0  0  0  0  0  0
   11.2052    0.9182   23.5182 C   0  0  0  0  0  0  0  0  0  0  0  0
   10.7217   -0.2333   22.9273 C   0  0  0  0  0  0  0  0  0  0  0  0
    6.9604    0.0240   20.0328 C   0  0  0  0  0  0  0  0  0  0  0  0
   12.9144   -0.7655   22.1706 C   0  0  0  0  0  0  0  0  0  0  0  0
   10.2855    1.7880   24.1985 C   0  0  0  0  0  0  0  0  0  0  0  0
    8.7280    0.1676   21.6293 C   0  0  0  0  0  0  0  0  0  0  0  0
    7.5348    3.3097   24.4762 C   0  0  0  0  0  0  0  0  0  0  0  0
    8.6013    0.0635   24.0262 C   0  0  0  0  0  0  0  0  0  0  0  0
    9.2801   -0.4615   22.8445 C   0  0  2  0  0  0  0  0  0  0  0  0
    7.1089    4.4851   22.4360 C   0  0  0  0  0  0  0  0  0  0  0  0
    8.0966    2.1422   25.1476 C   0  0  0  0  0  0  0  0  0  0  0  0
    6.5956    0.2672   17.7103 N   0  0  0  0  0  0  0  0  0  0  0  0
    8.9794    1.3975   24.3391 N   0  0  0  0  0  0  0  0  0  0  0  0
    7.7357   -0.5085   21.0173 N   0  0  0  0  0  0  0  0  0  0  0  0
    7.7921    3.5135   23.1735 N   0  0  0  0  0  0  0  0  0  0  0  0
   10.6350    2.9023   24.5230 O   0  0  0  0  0  0  0  0  0  0  0  0
    9.0302    1.2976   21.3050 O   0  0  0  0  0  0  0  0  0  0  0  0
    6.8326    4.0669   25.1055 O   0  0  0  0  0  0  0  0  0  0  0  0
   13.9537   -1.7682   21.3089 Cl  0  0  0  0  0  0  0  0  0  0  0  0
    2.7570    2.9968   20.8691 H   0  0  0  0  0  0  0  0  0  0  0  0
    3.9467    2.0242   22.7771 H   0  0  0  0  0  0  0  0  0  0  0  0
    3.5131    2.5293   18.5897 H   0  0  0  0  0  0  0  0  0  0  0  0
    5.9277    0.6218   22.4209 H   0  0  0  0  0  0  0  0  0  0  0  0
   12.9189    2.1443   23.8347 H   0  0  0  0  0  0  0  0  0  0  0  0
   14.4296    0.6603   22.6213 H   0  0  0  0  0  0  0  0  0  0  0  0
   11.2007   -1.9766   21.8098 H   0  0  0  0  0  0  0  0  0  0  0  0
    5.0155    1.4791   17.1127 H   0  0  0  0  0  0  0  0  0  0  0  0
    8.1569   -0.8407   18.5126 H   0  0  0  0  0  0  0  0  0  0  0  0
    7.5164    0.0400   23.8461 H   0  0  0  0  0  0  0  0  0  0  0  0
    8.8445   -0.5800   24.8845 H   0  0  0  0  0  0  0  0  0  0  0  0
    9.0992   -1.5450   22.7879 H   0  0  0  0  0  0  0  0  0  0  0  0
    7.4738    4.4823   21.3983 H   0  0  0  0  0  0  0  0  0  0  0  0
    6.0317    4.2629   22.4464 H   0  0  0  0  0  0  0  0  0  0  0  0
    7.2835    5.4748   22.8833 H   0  0  0  0  0  0  0  0  0  0  0  0
    8.6445    2.4832   26.0384 H   0  0  0  0  0  0  0  0  0  0  0  0
    7.2691    1.4860   25.4551 H   0  0  0  0  0  0  0  0  0  0  0  0
    7.5595   -1.4511   21.3012 H   0  0  0  0  0  0  0  0  0  0  0  0
    8.4888    2.9572   22.7206 H   0  0  0  0  0  0  0  0  0  0  0  0
  1  2  1  0  0  0  0
  1  3  2  0  0  0  0
  2  4  2  0  0  0  0
  3 10  1  0  0  0  0
  4 11  1  0  0  0  0
  5  6  2  0  0  0  0
  5 12  1  0  0  0  0
  6 15  1  0  0  0  0
  7 13  1  0  0  0  0
  7 15  2  0  0  0  0
  8 10  2  0  0  0  0
  8 23  1  0  0  0  0
  9 14  1  0  0  0  0
  9 23  2  0  0  0  0
 10 11  1  0  0  0  0
 11 14  2  0  0  0  0
 12 13  2  0  0  0  0
 12 16  1  0  0  0  0
 13 20  1  0  0  0  0
 14 25  1  0  0  0  0
 15 30  1  0  0  0  0
 16 24  1  0  0  0  0
 16 27  2  0  0  0  0
 17 20  1  0  0  0  0
 17 25  1  0  0  0  0
 17 28  2  0  0  0  0
 18 22  1  0  0  0  0
 18 26  1  0  0  0  0
 18 29  2  0  0  0  0
 19 20  1  0  0  0  0
 19 24  1  0  0  0  0
 21 26  1  0  0  0  0
 22 24  1  0  0  0  0
  1 31  1  0  0  0  0
  2 32  1  0  0  0  0
  3 33  1  0  0  0  0
  4 34  1  0  0  0  0
  5 35  1  0  0  0  0
  6 36  1  0  0  0  0
  7 37  1  0  0  0  0
  8 38  1  0  0  0  0
  9 39  1  0  0  0  0
 19 40  1  0  0  0  0
 19 41  1  0  0  0  0
 20 42  1  0  0  0  0
 21 43  1  0  0  0  0
 21 44  1  0  0  0  0
 21 45  1  0  0  0  0
 22 46  1  0  0  0  0
 22 47  1  0  0  0  0
 25 48  1  0  0  0  0
 26 49  1  0  0  0  0
M  END
> <compound_name>
MAT-POS-a54ce14d-2

> <provenance>
{"isomeric_smiles": "CNC(=O)CN1C[C@H](c2cc(ccc2C1=O)Cl)C(=O)Nc3cncc4c3cccc4", "inchi": "InChI=1S/C22H19ClN4O3/c1-24-20(28)12-27-11-18(17-8-14(23)6-7-16(17)22(27)30)21(29)26-19-10-25-9-13-4-2-3-5-15(13)19/h2-10,18H,11-12H2,1H3,(H,24,28)(H,26,29)/t18-/m1/s1", "inchi_key": "JTYFNCRZNYLUFK-GOSISDBHSA-N", "fixed_inchi": "InChI=1/C22H19ClN4O3/c1-24-20(28)12-27-11-18(17-8-14(23)6-7-16(17)22(27)30)21(29)26-19-10-25-9-13-4-2-3-5-15(13)19/h2-10,18H,11-12H2,1H3,(H,24,28)(H,26,29)/t18-/m1/s1/f/h24,26H", "fixed_inchikey": "JTYFNCRZNYLUFK-RPBBETCJNA-N"}

> <data_format>
sdf

> <Pose_ID>
0

> <docking-confidence-POSIT>
0.99

> <_POSIT_method>
SHAPEFIT

$$$$
