
  -OEChem-02052518233D

 49 52  0     1  0  0  0  0  0999 V2000
    5.1540    0.3642   17.0832 C   0  0  0  0  0  0  0  0  0  0  0  0
    6.0791   -0.4645   17.6928 C   0  0  0  0  0  0  0  0  0  0  0  0
    4.5607    1.4025   17.7866 C   0  0  0  0  0  0  0  0  0  0  0  0
    6.3990   -0.2596   18.9867 C   0  0  0  0  0  0  0  0  0  0  0  0
   12.1595    0.4904   23.7070 C   0  0  0  0  0  0  0  0  0  0  0  0
   13.0616   -0.1235   22.8911 C   0  0  0  0  0  0  0  0  0  0  0  0
   11.2890   -1.2553   21.7523 C   0  0  0  0  0  0  0  0  0  0  0  0
    4.0946    2.4396   19.8725 C   0  0  0  0  0  0  0  0  0  0  0  0
    5.1509    1.6907   21.7693 C   0  0  0  0  0  0  0  0  0  0  0  0
    4.8256    1.5506   19.1046 C   0  0  0  0  0  0  0  0  0  0  0  0
    5.7485    0.7186   19.6942 C   0  0  0  0  0  0  0  0  0  0  0  0
   10.8359    0.2884   23.4976 C   0  0  0  0  0  0  0  0  0  0  0  0
   10.3839   -0.6149   22.5467 C   0  0  0  0  0  0  0  0  0  0  0  0
    5.9495    0.8214   21.0262 C   0  0  0  0  0  0  0  0  0  0  0  0
   12.6369   -1.0109   21.9239 C   0  0  0  0  0  0  0  0  0  0  0  0
    9.8946    1.0070   24.2562 C   0  0  0  0  0  0  0  0  0  0  0  0
    8.1818    0.2387   21.6682 C   0  0  0  0  0  0  0  0  0  0  0  0
    8.5143    0.0788   26.6007 C   0  0  0  0  0  0  0  0  0  0  0  0
    8.3714   -0.8594   23.7193 C   0  0  0  0  0  0  0  0  0  0  0  0
    8.9313   -0.8303   22.3712 C   0  0  2  0  0  0  0  0  0  0  0  0
   10.4550    0.1775   28.1926 C   0  0  0  0  0  0  0  0  0  0  0  0
    7.9112    0.7180   25.3865 C   0  0  0  0  0  0  0  0  0  0  0  0
    4.2467    2.4910   21.1917 N   0  0  0  0  0  0  0  0  0  0  0  0
    8.6656    0.4059   24.3486 N   0  0  0  0  0  0  0  0  0  0  0  0
    6.8702   -0.0333   21.5568 N   0  0  0  0  0  0  0  0  0  0  0  0
    9.8413    0.3842   26.9409 N   0  0  0  0  0  0  0  0  0  0  0  0
   10.1920    2.0405   24.8440 O   0  0  0  0  0  0  0  0  0  0  0  0
    8.6346    1.3368   21.4368 O   0  0  0  0  0  0  0  0  0  0  0  0
    7.7948   -0.6146   27.2988 O   0  0  0  0  0  0  0  0  0  0  0  0
   13.7738   -1.7638   20.9384 Cl  0  0  0  0  0  0  0  0  0  0  0  0
    4.8908    0.2011   16.0485 H   0  0  0  0  0  0  0  0  0  0  0  0
    6.5406   -1.2679   17.1377 H   0  0  0  0  0  0  0  0  0  0  0  0
    3.8925    2.0872   17.2856 H   0  0  0  0  0  0  0  0  0  0  0  0
    7.1606   -0.8604   19.4615 H   0  0  0  0  0  0  0  0  0  0  0  0
   12.4949    1.1297   24.5102 H   0  0  0  0  0  0  0  0  0  0  0  0
   14.1153    0.0859   23.0021 H   0  0  0  0  0  0  0  0  0  0  0  0
   10.9538   -1.9484   20.9948 H   0  0  0  0  0  0  0  0  0  0  0  0
    3.3895    3.1020   19.3924 H   0  0  0  0  0  0  0  0  0  0  0  0
    5.2655    1.7188   22.8428 H   0  0  0  0  0  0  0  0  0  0  0  0
    7.2826   -1.0076   23.6688 H   0  0  0  0  0  0  0  0  0  0  0  0
    8.8266   -1.6783   24.2956 H   0  0  0  0  0  0  0  0  0  0  0  0
    8.7571   -1.7944   21.8712 H   0  0  0  0  0  0  0  0  0  0  0  0
   11.5004    0.5170   28.1496 H   0  0  0  0  0  0  0  0  0  0  0  0
    9.9160    0.7475   28.9637 H   0  0  0  0  0  0  0  0  0  0  0  0
   10.4274   -0.8935   28.4420 H   0  0  0  0  0  0  0  0  0  0  0  0
    6.8895    0.3403   25.2334 H   0  0  0  0  0  0  0  0  0  0  0  0
    7.8832    1.8103   25.5136 H   0  0  0  0  0  0  0  0  0  0  0  0
    6.5482   -0.9214   21.8848 H   0  0  0  0  0  0  0  0  0  0  0  0
   10.4081    0.7890   26.2233 H   0  0  0  0  0  0  0  0  0  0  0  0
  1  2  1  0  0  0  0
  1  3  2  0  0  0  0
  2  4  2  0  0  0  0
  3 10  1  0  0  0  0
  4 11  1  0  0  0  0
  5  6  2  0  0  0  0
  5 12  1  0  0  0  0
  6 15  1  0  0  0  0
  7 13  1  0  0  0  0
  7 15  2  0  0  0  0
  8 10  2  0  0  0  0
  8 23  1  0  0  0  0
  9 14  1  0  0  0  0
  9 23  2  0  0  0  0
 10 11  1  0  0  0  0
 11 14  2  0  0  0  0
 12 13  2  0  0  0  0
 12 16  1  0  0  0  0
 13 20  1  0  0  0  0
 14 25  1  0  0  0  0
 15 30  1  0  0  0  0
 16 24  1  0  0  0  0
 16 27  2  0  0  0  0
 17 20  1  0  0  0  0
 17 25  1  0  0  0  0
 17 28  2  0  0  0  0
 18 22  1  0  0  0  0
 18 26  1  0  0  0  0
 18 29  2  0  0  0  0
 19 20  1  0  0  0  0
 19 24  1  0  0  0  0
 21 26  1  0  0  0  0
 22 24  1  0  0  0  0
  1 31  1  0  0  0  0
  2 32  1  0  0  0  0
  3 33  1  0  0  0  0
  4 34  1  0  0  0  0
  5 35  1  0  0  0  0
  6 36  1  0  0  0  0
  7 37  1  0  0  0  0
  8 38  1  0  0  0  0
  9 39  1  0  0  0  0
 19 40  1  0  0  0  0
 19 41  1  0  0  0  0
 20 42  1  0  0  0  0
 21 43  1  0  0  0  0
 21 44  1  0  0  0  0
 21 45  1  0  0  0  0
 22 46  1  0  0  0  0
 22 47  1  0  0  0  0
 25 48  1  0  0  0  0
 26 49  1  0  0  0  0
M  END
> <compound_name>
MAT-POS-a54ce14d-2

> <provenance>
{"isomeric_smiles": "CNC(=O)CN1C[C@H](c2cc(ccc2C1=O)Cl)C(=O)Nc3cncc4c3cccc4", "inchi": "InChI=1S/C22H19ClN4O3/c1-24-20(28)12-27-11-18(17-8-14(23)6-7-16(17)22(27)30)21(29)26-19-10-25-9-13-4-2-3-5-15(13)19/h2-10,18H,11-12H2,1H3,(H,24,28)(H,26,29)/t18-/m1/s1", "inchi_key": "JTYFNCRZNYLUFK-GOSISDBHSA-N", "fixed_inchi": "InChI=1/C22H19ClN4O3/c1-24-20(28)12-27-11-18(17-8-14(23)6-7-16(17)22(27)30)21(29)26-19-10-25-9-13-4-2-3-5-15(13)19/h2-10,18H,11-12H2,1H3,(H,24,28)(H,26,29)/t18-/m1/s1/f/h24,26H", "fixed_inchikey": "JTYFNCRZNYLUFK-RPBBETCJNA-N"}

> <data_format>
sdf

> <Pose_ID>
9

> <_POSIT_method>
SHAPEFIT

> <docking-confidence-POSIT>
0.78

$$$$
